Rede_03/_trafo3 - Copia/Line.dss
! Created by 42 on 2017-12-19 14:47:34
New Line._abcn_l01-sec   Bus1=bus_xfmr_sec_33998182.1.2.3.4 Bus2=bus_33998182_001.1.2.3.4 Length=0.0150330000 Geometry=sec-tradicional-ca-2awg-1kv-ca-2awg-1kv-ca-2awg-1kv-ca-4_0awg-1kv Units=km
New Line._cn_l02-ramal   Bus1=bus_xfmr_sec_33998182.3.4     Bus2=bus_33998182_013.3.4     Length=0.0058630000 Geometry=tap-duplex__2_ca-70mm2-xlpe-1kv Units=km
New Line._abcn_l03-sec   Bus1=bus_xfmr_sec_33998182.1.2.3.4 Bus2=bus_33998182_006.1.2.3.4 Length=0.0306860000 Geometry=sec-tradicional-ca-2awg-1kv-ca-2awg-1kv-ca-2awg-1kv-ca-4_0awg-1kv Units=km
New Line._abcn_l04-sec   Bus1=bus_33998182_001.1.2.3.4      Bus2=bus_33998182_014.1.2.3.4 Length=0.0178930000 Geometry=sec-tradicional-ca-2awg-1kv-ca-2awg-1kv-ca-2awg-1kv-ca-4_0awg-1kv Units=km
New Line._abcn_l05-sec   Bus1=bus_33998182_001.1.2.3.4      Bus2=bus_33998182_002.1.2.3.4 Length=0.0145570000 Geometry=sec-tradicional-ca-2awg-1kv-ca-2awg-1kv-ca-2awg-1kv-ca-4_0awg-1kv Units=km
New Line._abcn_l06-sec   Bus1=bus_33998182_001.1.2.3.4      Bus2=bus_33998182_003.1.2.3.4 Length=0.0194170000 Geometry=sec-tradicional-ca-2awg-1kv-ca-2awg-1kv-ca-2awg-1kv-ca-4_0awg-1kv Units=km
New Line._an_l07-ramal   Bus1=bus_33998182_002.1.4          Bus2=bus_33998182_015.1.4     Length=0.0044300000 Geometry=tap-duplex__2_ca-16mm2-xlpe-1kv Units=km
New Line._bcn_l08-ramal  Bus1=bus_33998182_002.2.3.4        Bus2=bus_33998182_016.2.3.4   Length=0.0064790000 Geometry=tap-triplex__3_ca-16mm2-xlpe-1kv Units=km
New Line._abcn_l09-sec   Bus1=bus_33998182_002.1.2.3.4      Bus2=bus_33998182_004.1.2.3.4 Length=0.0376970000 Geometry=sec-tradicional-ca-2awg-1kv-ca-2awg-1kv-ca-2awg-1kv-ca-4_0awg-1kv Units=km
New Line._abcn_l10-sec   Bus1=bus_33998182_003.1.2.3.4      Bus2=bus_33998182_005.1.2.3.4 Length=0.0249980000 Geometry=sec-tradicional-ca-2awg-1kv-ca-2awg-1kv-ca-2awg-1kv-ca-4_0awg-1kv Units=km
New Line._abcn_l11-ramal Bus1=bus_33998182_003.1.2.3.4      Bus2=bus_33998182_017.1.2.3.4 Length=0.0053670000 Geometry=tap-quadruplex__4_ca-16mm2-xlpe-1kv Units=km
New Line._an_l12-ramal   Bus1=bus_33998182_004.1.4          Bus2=bus_33998182_018.1.4     Length=0.0066410000 Geometry=tap-duplex__2_ca-16mm2-xlpe-1kv Units=km
New Line._bcn_l13-ramal  Bus1=bus_33998182_004.2.3.4        Bus2=bus_33998182_019.2.3.4   Length=0.0067360000 Geometry=tap-triplex__3_ca-16mm2-xlpe-1kv Units=km
New Line._abcn_l14-ramal Bus1=bus_33998182_005.1.2.3.4      Bus2=bus_33998182_020.1.2.3.4 Length=0.0049940000 Geometry=tap-quadruplex__4_ca-16mm2-xlpe-1kv Units=km
New Line._acn_l15-ramal  Bus1=bus_33998182_005.1.3.4        Bus2=bus_33998182_021.1.3.4   Length=0.0067130000 Geometry=tap-triplex__3_ca-16mm2-xlpe-1kv Units=km
New Line._bn_l16-ramal   Bus1=bus_33998182_006.2.4          Bus2=bus_33998182_022.2.4     Length=0.0050040000 Geometry=tap-duplex__2_ca-16mm2-xlpe-1kv Units=km
New Line._abcn_l17-sec   Bus1=bus_33998182_006.1.2.3.4      Bus2=bus_33998182_007.1.2.3.4 Length=0.0193170000 Geometry=sec-tradicional-ca-2awg-1kv-ca-2awg-1kv-ca-2awg-1kv-ca-4_0awg-1kv Units=km
New Line._bcn_l18-ramal  Bus1=bus_33998182_006.2.3.4        Bus2=bus_33998182_023.2.3.4   Length=0.0081240000 Geometry=tap-triplex__3_ca-16mm2-xlpe-1kv Units=km
New Line._abcn_l19-sec   Bus1=bus_33998182_007.1.2.3.4      Bus2=bus_33998182_008.1.2.3.4 Length=0.0276630000 Geometry=sec-tradicional-ca-2awg-1kv-ca-2awg-1kv-ca-2awg-1kv-ca-2awg-1kv Units=km
New Line._abcn_l20-sec   Bus1=bus_33998182_007.1.2.3.4      Bus2=bus_33998182_009.1.2.3.4 Length=0.0125300000 Geometry=sec-tradicional-ca-2awg-1kv-ca-2awg-1kv-ca-2awg-1kv-ca-2awg-1kv Units=km
New Line._abcn_l21-sec   Bus1=bus_33998182_007.1.2.3.4      Bus2=bus_33998182_010.1.2.3.4 Length=0.0131520000 Geometry=sec-tradicional-ca-2awg-1kv-ca-2awg-1kv-ca-2awg-1kv-ca-4_0awg-1kv Units=km
New Line._bcn_l22-ramal  Bus1=bus_33998182_008.2.3.4        Bus2=bus_33998182_024.2.3.4   Length=0.0049940000 Geometry=tap-triplex__3_ca-16mm2-xlpe-1kv Units=km
New Line._abcn_l23-sec   Bus1=bus_33998182_008.1.2.3.4      Bus2=bus_33998182_011.1.2.3.4 Length=0.0367000000 Geometry=sec-tradicional-ca-2awg-1kv-ca-2awg-1kv-ca-2awg-1kv-ca-2awg-1kv Units=km
New Line._bn_l24-ramal   Bus1=bus_33998182_008.2.4          Bus2=bus_33998182_025.2.4     Length=0.0050040000 Geometry=tap-duplex__2_ca-16mm2-xlpe-1kv Units=km
New Line._abn_l25-ramal  Bus1=bus_33998182_009.1.2.4        Bus2=bus_33998182_026.1.2.4   Length=0.0052170000 Geometry=tap-triplex__3_ca-16mm2-xlpe-1kv Units=km
New Line._cn_l26-ramal   Bus1=bus_33998182_009.3.4          Bus2=bus_33998182_027.3.4     Length=0.0068780000 Geometry=tap-duplex__2_ca-16mm2-xlpe-1kv Units=km
New Line._abcn_l27-sec   Bus1=bus_33998182_009.1.2.3.4      Bus2=bus_33998182_012.1.2.3.4 Length=0.0366820000 Geometry=sec-tradicional-ca-2awg-1kv-ca-2awg-1kv-ca-2awg-1kv-ca-2awg-1kv Units=km
New Line._an_l28-ramal   Bus1=bus_33998182_009.1.4          Bus2=bus_33998182_028.1.4     Length=0.0052210000 Geometry=tap-duplex__2_ca-16mm2-xlpe-1kv Units=km
New Line._cn_l29-ramal   Bus1=bus_33998182_009.3.4          Bus2=bus_33998182_029.3.4     Length=0.0052240000 Geometry=tap-duplex__2_ca-16mm2-xlpe-1kv Units=km
New Line._an_l30-ramal   Bus1=bus_33998182_010.1.4          Bus2=bus_33998182_030.1.4     Length=0.0050040000 Geometry=tap-duplex__2_ca-16mm2-xlpe-1kv Units=km
New Line._cn_l31-ramal   Bus1=bus_33998182_011.3.4          Bus2=bus_33998182_031.3.4     Length=0.0117740000 Geometry=tap-duplex__2_ca-16mm2-xlpe-1kv Units=km
New Line._cn_l32-ramal   Bus1=bus_33998182_011.3.4          Bus2=bus_33998182_032.3.4     Length=0.0107800000 Geometry=tap-duplex__2_ca-16mm2-xlpe-1kv Units=km
New Line._an_l33-ramal   Bus1=bus_33998182_011.1.4          Bus2=bus_33998182_033.1.4     Length=0.0075170000 Geometry=tap-duplex__2_ca-16mm2-xlpe-1kv Units=km
New Line._acn_l34-ramal  Bus1=bus_33998182_011.1.3.4        Bus2=bus_33998182_034.1.3.4   Length=0.0067040000 Geometry=tap-triplex__3_ca-16mm2-xlpe-1kv Units=km
New Line._an_l35-ramal   Bus1=bus_33998182_012.1.4          Bus2=bus_33998182_035.1.4     Length=0.0102660000 Geometry=tap-duplex__2_ca-16mm2-xlpe-1kv Units=km
New Line._bn_l36-ramal   Bus1=bus_33998182_012.2.4          Bus2=bus_33998182_036.2.4     Length=0.0100220000 Geometry=tap-duplex__2_ca-16mm2-xlpe-1kv Units=km
New Line._cn_l37-ramal   Bus1=bus_33998182_012.3.4          Bus2=bus_33998182_037.3.4     Length=0.0109890000 Geometry=tap-duplex__2_ca-16mm2-xlpe-1kv Units=km
New Line._bn_l38-ramal   Bus1=bus_33998182_012.2.4          Bus2=bus_33998182_038.2.4     Length=0.0052270000 Geometry=tap-duplex__2_ca-16mm2-xlpe-1kv Units=km
New Line._an_l39-ramal   Bus1=bus_33998182_012.1.4          Bus2=bus_33998182_039.1.4     Length=0.0095660000 Geometry=tap-duplex__2_ca-16mm2-xlpe-1kv Units=km
