Rede_03/_trafo3 - Copia/ckt03_VLN.Txt

SYMMETRICAL COMPONENT VOLTAGES BY BUS (for 3-phase buses)

Bus                    Mag:   V1 (kV)    p.u.     V2 (kV)   %V2/V1    V0 (kV)    %V0/V1

bus_xfmr_pri_33998182      6.87          1  3.505E-009  5.101E-008 4.469E-010 6.505E-009
bus_xfmr_sec_33998182     0.127          1  3.963E-010  3.12E-007 5.815E-009 4.578E-006
bus_33998182_001          0.127          1  4.611E-010  3.63E-007 5.906E-009 4.649E-006
bus_33998182_013          0.127          1          0          0         0         0
bus_33998182_006          0.127          1  4.866E-010  3.831E-007 5.753E-009 4.53E-006
bus_33998182_014          0.127          1  4.624E-010  3.64E-007 5.904E-009 4.649E-006
bus_33998182_002          0.127          1  4.668E-010  3.675E-007 5.892E-009 4.639E-006
bus_33998182_003          0.127          1  5.359E-010  4.219E-007 6.048E-009 4.761E-006
bus_33998182_015          0.127          1          0          0         0         0
bus_33998182_016        0.08468     0.6667    0.04234         50   0.04234        50
bus_33998182_004          0.127          1  4.73E-010  3.724E-007 5.875E-009 4.625E-006
bus_33998182_005          0.127          1  6.257E-010  4.926E-007 6.239E-009 4.912E-006
bus_33998182_017          0.127          1  5.362E-010  4.222E-007 6.047E-009 4.761E-006
bus_33998182_018          0.127          1          0          0         0         0
bus_33998182_019        0.08468     0.6667    0.04234         50   0.04234        50
bus_33998182_020          0.127          1  6.26E-010  4.929E-007 6.238E-009 4.911E-006
bus_33998182_021        0.08468     0.6667    0.04234         50   0.04234        50
bus_33998182_022          0.127          1          0          0         0         0
bus_33998182_007          0.127          1  6.44E-010  5.07E-007 6.011E-009 4.732E-006
bus_33998182_023        0.08468     0.6667    0.04234         50   0.04234        50
bus_33998182_008          0.127          1  7.366E-010   5.8E-007 6.064E-009 4.774E-006
bus_33998182_009          0.127          1  6.809E-010  5.36E-007 6.079E-009 4.786E-006
bus_33998182_010          0.127          1  6.745E-010  5.31E-007 6.099E-009 4.802E-006
bus_33998182_024        0.08468     0.6667    0.04234         50   0.04234        50
bus_33998182_011          0.127          1  1.049E-009  8.256E-007 6.72E-009 5.291E-006
bus_33998182_025          0.127          1          0          0         0         0
bus_33998182_026        0.08468     0.6667    0.04234         50   0.04234        50
bus_33998182_027          0.127          1          0          0         0         0
bus_33998182_012          0.127          1  6.74E-010  5.306E-007 6.035E-009 4.751E-006
bus_33998182_028          0.127          1          0          0         0         0
bus_33998182_029          0.127          1          0          0         0         0
bus_33998182_030          0.127          1          0          0         0         0
bus_33998182_031          0.127          1          0          0         0         0
bus_33998182_032          0.127          1          0          0         0         0
bus_33998182_033          0.127          1          0          0         0         0
bus_33998182_034        0.08468     0.6667    0.04234         50   0.04234        50
bus_33998182_035          0.127          1          0          0         0         0
bus_33998182_036          0.127          1          0          0         0         0
bus_33998182_037          0.127          1          0          0         0         0
bus_33998182_038          0.127          1          0          0         0         0
bus_33998182_039          0.127          1          0          0         0         0
